34
4zlz_ligand
C        -22.58300        9.35500       -6.74200
C        -23.21200        7.96300       -4.99000
C        -22.23200        8.51400       -4.14300
C        -22.10800        8.03500       -2.73500
C        -22.98800        8.02500       -0.48200
C        -19.86000        6.00200       -0.56100
C        -18.91900        5.65700       -1.55500
C        -20.33800       10.22700       -3.80500
C        -21.40800        9.55400       -4.64800
C        -21.60200        9.97000       -5.96800
N        -23.34100        8.38800       -6.23700
C        -23.06900        8.42100       -1.80100
C        -21.95400        7.23000       -0.06000
C        -20.95800        6.81800       -0.96000
N        -19.74600        5.61100        0.75600
N        -19.08900        6.09500       -2.81000
N        -20.07600        6.82600       -3.17000
C        -21.03400        7.21800       -2.31800
C        -17.71300        4.85900       -1.29600
N        -16.77100        4.77800       -2.25900
O        -17.52500        4.32600       -0.21900
H        -20.75800       10.65100       -3.00300
H        -18.96700        5.05500        1.04700
H        -16.90200        5.25600       -3.12800
H        -19.67000        9.54800       -3.50200
H        -19.88100       10.92600       -4.35600
H        -22.71800        9.64500       -7.68900
H        -23.81600        7.24400       -4.64700
H        -23.68700        8.31900        0.17000
H        -21.04100       10.70300       -6.35300
H        -23.83300        8.99700       -2.09300
H        -21.90900        6.94100        0.89600
H        -20.44200        5.88300        1.42000
H        -15.94200        4.24000       -2.10400
